03_OpenDSS_Circuits/HollySprings_Circuit_Opendss/Sections.DSS
// *******************************
// Defines Line names (Sections) for fused and regulators
New Line.105495__103374096 Bus1=103007630 Bus2=103135359
New Line.12116__2633487 Bus1=26281708 Bus2=1105528
New Line.13L570__2701321 Bus1=26679485 Bus2=27137075
New Line.18KQ20_186Q93_105985159 Bus1=103651947 Bus2=103527267
New Line.7NX16__2654685 Bus1=25734564 Bus2=25507954
New Line.106804__2701104 Bus1=27136858 Bus2=25836854
New Line.106804__2701105 Bus1=25836854 Bus2=27136859
New Line.144378__2701336 Bus1=26776430 Bus2=27137090
New Line.106804__2701106 Bus1=25836854 Bus2=27136860
New Line.13L570__2701322 Bus1=27137076 Bus2=26679485
New Line.149479_D884K_2679897 Bus1=25783320 Bus2=26854287
New Line.18GC33__105326050 Bus1=103626605 Bus2=103626606
New Line.7145K__2668244 Bus1=1106214 Bus2=26160639
New Line.8R717_8R719_2657823 Bus1=26991515 Bus2=26991512
New Line.106800__2701100 Bus1=25836861 Bus2=27136854
New Line.11E480_11E481_2667684 Bus1=103125599 Bus2=27136877
New Line.17KH67__104218229 Bus1=103359063 Bus2=103359065
New Line.G253K__2633500 Bus1=25734640 Bus2=1105228
New Line.NV06__2635241 Bus1=25024993 Bus2=1139641
New Line.186Q94__104672522 Bus1=103527277 Bus2=103527276
New Line.BUS_103098782 Bus1=103048714 Bus2=103048715
New Line.14LH99__2680807 Bus1=26896053 Bus2=26896074
New Line.J381K_J381K_2626999 Bus1=1105315 Bus2=T4795B23_10000051
New Line.U405BH_U406BH_103374222 Bus1=103119508 Bus2=1141046
New Line.186Q94__104672521 Bus1=103527276 Bus2=103527275
New Line.U498BH__2634398 Bus1=1140417 Bus2=1140419
New Line.BUS_104712819 Bus1=103543472 Bus2=T4795B23_10000049
New Line.15TN71_15TN72_103913787 Bus1=103265150 Bus2=103265149
New Line.8EK66_8EK67_2662319 Bus1=27136728 Bus2=27136701
New Line.BUS_103388664 Bus1=103121474 Bus2=103121475
New Line.7353K__2635246 Bus1=1104705 Bus2=1104706
New Line.G9L65_17Q665_2681054 Bus1=103041881 Bus2=103413875
New Line.17MN18__104282587 Bus1=103383300 Bus2=103383301
New Line.U399BH_U403BH_2628256 Bus1=1141029 Bus2=1141031
New Line.17MN18__104282586 Bus1=103383301 Bus2=103383302
New Line.184Q68_183Y93_104712795 Bus1=103543441 Bus2=103543459
New Line.G259K__2633473 Bus1=1105218 Bus2=1105219
New Line.U768BH_U770BH_2626908 Bus1=1140819 Bus2=1140809
New Line.CBR27__2700959 Bus1=1105418 Bus2=27136713
New Line.CBR27__2700958 Bus1=27136712 Bus2=1105418
New Line.D118K_D117K_2626987 Bus1=27136777 Bus2=27136765
New Line.D106K_12128_2626989 Bus1=27136666 Bus2=27136663
New Line.132351_132352_2675025 Bus1=26999465 Bus2=26999474
New Line.9AM82_D883K_2659664 Bus1=25631624 Bus2=26999871
New Line.A984BH_86093_2656902 Bus1=25429365 Bus2=27135962
New Line.B122K__2632717 Bus1=1106342 Bus2=1106343
New Line.183Y96__104696222 Bus1=103537190 Bus2=103537122
New Line.106797__2662470 Bus1=25836866 Bus2=25836874
New Line.107B89__2666337 Bus1=25879303 Bus2=26049901
New Line.11E479__2667681 Bus1=26128165 Bus2=26128166
New Line.13PX76_13PX77_2676794 Bus1=27000196 Bus2=27000199
New Line.14Q055__103041320 Bus1=103016834 Bus2=103016849
New Line.14Q055__103041321 Bus1=103016839 Bus2=103016834
New Line.183Y96__104696221 Bus1=103537122 Bus2=103537696
New Line.7228K_9AM77_2659652 Bus1=25631627 Bus2=26999873
New Line.G2403__2693084 Bus1=1140149 Bus2=26999407
New Line.13PX85_7231K_2676812 Bus1=26709862 Bus2=27000178
New Line.BUS_103098768 Bus1=103048712 Bus2=103048711
New Line.8CM13_7375K_2657047 Bus1=1104998 Bus2=25426801
New Line.G2402__2693085 Bus1=25747796 Bus2=26999408
New Line.183Y13__104695299 Bus1=103536788 Bus2=103536875
New Line.G255K__2633499 Bus1=1105257 Bus2=1105258
New Line.106796__2662469 Bus1=25836865 Bus2=25836877
New Line.18GC39_18GC40_105326041 Bus1=103626617 Bus2=103626615
New Line.7RE77_7TX21_2656196 Bus1=25360359 Bus2=27136932
New Line.U563BH_U564BH_2628330 Bus1=1140225 Bus2=1140224
New Line.6TE34_6TE39_2655975 Bus1=27136887 Bus2=27136890
New Line.8DR30__2693046 Bus1=25426802 Bus2=26999369
New Line.G2402__2693086 Bus1=26999409 Bus2=25747796
New Line.G2403__2693083 Bus1=26999406 Bus2=1140149
New Line.119P96_13XH06_2677732 Bus1=26999477 Bus2=26755991
New Line.6MG73_6MG74_2653436 Bus1=25173482 Bus2=6MG73_2667352
New Line.8R719__2657827 Bus1=25490382 Bus2=25490417
New Line.85373_13F675_2657449 Bus1=103121256 Bus2=27137027
New Line.8DR30__2693045 Bus1=26999368 Bus2=25426802
New Line.A543BH__2634446 Bus1=1139897 Bus2=1139898
New Line.14FX05_14FX04_2679999 Bus1=27136524 Bus2=27136494
New Line.134088_133Y84_2676509 Bus1=103121503 Bus2=27136946
New Line.8DR36__2693047 Bus1=25497403 Bus2=26999370
New Line.5DP96__2653504 Bus1=25734551 Bus2=25104384
New Line.7NX73__2692946 Bus1=25734565 Bus2=103079718
New Line.9WA93_116C33_2663184 Bus1=27136721 Bus2=27137278
New Line.U570BH_A536BH_2628380 Bus1=1140122 Bus2=26999161
New Line.183Y90_183Y09_104696276 Bus1=103537136 Bus2=103536814
New Line.18KP63__105820224 Bus1=103645566 Bus2=103645568
New Line.7NX73__2692947 Bus1=26999270 Bus2=25734565
New Line.U586BH__2634420 Bus1=1140112 Bus2=1140113
New Line.144380__2678080 Bus1=26776418 Bus2=26776419
New Line.U538BH_U540BH_2628334 Bus1=1140285 Bus2=1140272
New Line.9WF49__2701060 Bus1=25876081 Bus2=27136814
New Line.5S377_7372K_2628415 Bus1=1104677 Bus2=1104678
New Line.102L21__2701174 Bus1=26755198 Bus2=27136928
New Line.107B90_107C01_2663402 Bus1=25879307 Bus2=25885367
New Line.102L21__2701175 Bus1=27136929 Bus2=26755198
New Line.17KH67__104218262 Bus1=103359063 Bus2=103359064
New Line.7NW83__2654656 Bus1=25734560 Bus2=25247353
New Line.U406BH__2634365 Bus1=1141046 Bus2=1141047
New Line.17KH67__104218263 Bus1=103359062 Bus2=103359063
New Line.U394BH_U395BH_2628252 Bus1=1141306 Bus2=103119511
New Line.17MN18__104282528 Bus1=103383301 Bus2=103383303
New Line.U754BH__103402731 Bus1=25879306 Bus2=103125270
New Line.A452K__2632719 Bus1=1106347 Bus2=1106348
New Line.U764BH__2633401 Bus1=1140821 Bus2=1140822
New Line.102L19__2701170 Bus1=27136924 Bus2=26755197
New Line.144381__2678078 Bus1=26776411 Bus2=26776412
New Line.8DR36__2693048 Bus1=26999371 Bus2=25497403
New Line.8DT97__2693891 Bus1=27000214 Bus2=T4795B23_10000002
New Line.102L19__2701171 Bus1=26755197 Bus2=27136925
New Line.13PX97_13PX90_2676776 Bus1=27000186 Bus2=27000189
New Line.C1F95__2633417 Bus1=25734580 Bus2=1106182
New Line.14L345__2680576 Bus1=26887526 Bus2=26887540
New Line.84Q26_7NX60_2656157 Bus1=26999354 Bus2=26999350
New Line.7364K_7365K_2629427 Bus1=1104964 Bus2=1104965
New Line.14G317__2679983 Bus1=27146923 Bus2=103016798
New Line.14G317__2679982 Bus1=103036415 Bus2=27146922
New Line.U602BH__2692833 Bus1=26999156 Bus2=1139987
New Line.14G317__2679985 Bus1=27146925 Bus2=103089681
New Line.14Q049__104261805 Bus1=103294963 Bus2=103294677
New Line.U600BH__2692822 Bus1=26999145 Bus2=1140076
New Line.14G317__2679984 Bus1=27146924 Bus2=103089685
New Line.14L465__2700819 Bus1=103045212 Bus2=26887559
New Line.18KQ21_183907_105985151 Bus1=103651945 Bus2=103529698
New Line.BUS_103041238 Bus1=103016792 Bus2=103016797
New Line.D112K__2633462 Bus1=25734606 Bus2=1106081
New Line.U600BH__2692821 Bus1=1140076 Bus2=26999144
New Line.0M737__2633426 Bus1=25885435 Bus2=1140477
New Line.13PX78_13PX80_2676800 Bus1=27000202 Bus2=27000205
New Line.8DR41__2657053 Bus1=25426804 Bus2=25426812
New Line.9WA92__2663191 Bus1=25873711 Bus2=25873741
New Line.BUS_103041237 Bus1=103016794 Bus2=103294963
New Line.PBB36__2635209 Bus1=25234913 Bus2=1140004
New Line.132359__2673910 Bus1=26555782 Bus2=26555783
New Line.18LL89_18LL88_105931316 Bus1=103649883 Bus2=103649893
New Line.9AM84__2693537 Bus1=25631609 Bus2=26999860
New Line.BUS_103041236 Bus1=103016794 Bus2=103294961
New Line.102L18__2701168 Bus1=25750597 Bus2=27136922
New Line.9AM84__2693536 Bus1=26999859 Bus2=25631609
New Line.9AM85__2693535 Bus1=25631608 Bus2=26999858
New Line.9AM89__2693539 Bus1=25631613 Bus2=26999862
New Line.BUS_103041235 Bus1=103016793 Bus2=103016792
New Line.102L18__2701169 Bus1=27136923 Bus2=25750597
New Line.9AM85__2693534 Bus1=26999857 Bus2=25631608
New Line.9AM89__2693538 Bus1=26999861 Bus2=25631613
New Line.U602BH__2692835 Bus1=1139987 Bus2=26999158
New Line.13PX80_13PX81_2676802 Bus1=27000112 Bus2=27000204
New Line.9WA93__2663190 Bus1=25873713 Bus2=25873745
New Line.9WF47__2700945 Bus1=27136699 Bus2=25876080
New Line.U602BH__2692834 Bus1=1139987 Bus2=26999157
New Line.U880BH__2632712 Bus1=1141080 Bus2=25498469
New Line.158L56_U571BH_103537236 Bus1=103160088 Bus2=26027072
New Line.8DR47__2657052 Bus1=25426805 Bus2=25426814
New Line.9WF47__2700944 Bus1=27136698 Bus2=25876080
New Line.8DT82__2657110 Bus1=25734570 Bus2=25443588
New Line.BUS_2707110 Bus1=27146931 Bus2=27146927
New Line.132364__2673920 Bus1=26555809 Bus2=26615863
New Line.14L341__2680572 Bus1=26887522 Bus2=T4795B23_10000039
New Line.9WF47__2700946 Bus1=25876080 Bus2=27136700
New Line.106797_106795_2662456 Bus1=27136875 Bus2=27136871
New Line.13L570_13L571_2676125 Bus1=27137075 Bus2=27137078
New Line.144378__2678084 Bus1=26776430 Bus2=26776431
New Line.18GC40__105325982 Bus1=103626618 Bus2=103626620
New Line.133Y83_133Y82_2674184 Bus1=27136948 Bus2=27136951
New Line.17Q660__104378557 Bus1=103413072 Bus2=103413063
New Line.18KP61_18KQ21_105820251 Bus1=103645571 Bus2=103651945
New Line.7MX03__2656002 Bus1=25356093 Bus2=25356100
New Line.15TN75_17CA01_103913826 Bus1=103297397 Bus2=103265168
New Line.17KH66__104218227 Bus1=103359052 Bus2=103359054
New Line.7TX18_7WL56_2656205 Bus1=27136908 Bus2=103125604
New Line.14L810__2700860 Bus1=103048713 Bus2=103048712
New Line.7MX02__2656003 Bus1=25356096 Bus2=25356097
New Line.C1F95__2700899 Bus1=27136653 Bus2=25734580
New Line.107B88__103402724 Bus1=1140790 Bus2=103125269
New Line.14NJ19__103098846 Bus1=103041526 Bus2=103041531
New Line.14Q054__103041306 Bus1=103016829 Bus2=103016827
New Line.5DP92_5DP93_2664342 Bus1=26999484 Bus2=26999491
New Line.A449K_A450K_2626959 Bus1=1106195 Bus2=1106193
New Line.14MD35__103098783 Bus1=103048715 Bus2=T4795B23_10000005
New Line.14Q054__103041304 Bus1=103016827 Bus2=103016831
New Line.17MN22__104282536 Bus1=103383282 Bus2=103383284
New Line.132365__2673918 Bus1=26555802 Bus2=26555803
New Line.144379_144378_2678083 Bus1=27137090 Bus2=27137096
New Line.14Q054__103041305 Bus1=103016827 Bus2=103016838
New Line.14L466__2700821 Bus1=103125256 Bus2=26887560
New Line.7MX01__2656001 Bus1=25356091 Bus2=25356102
New Line.A456K__2668248 Bus1=26281717 Bus2=26165251
New Line.U535BH_U536BH_2628327 Bus1=1140295 Bus2=1140289
New Line.17KH64_17KH65_104218257 Bus1=103359455 Bus2=103359055
New Line.132361__2673916 Bus1=26555797 Bus2=26555798
New Line.7361K_A842K_2629431 Bus1=1104953 Bus2=1104951
New Line.14L466__2700822 Bus1=26887560 Bus2=27136576
New Line.186Q95__104672520 Bus1=103527273 Bus2=103527272
New Line.132356__2673904 Bus1=26555762 Bus2=26555763
New Line.2YV80__2634423 Bus1=25234912 Bus2=1140054
New Line.BUS_105436413 Bus1=103631333 Bus2=103631332
New Line.6TD35__2665987 Bus1=26037868 Bus2=T4795B23_10000038
New Line.8DW53__103222930 Bus1=103079712 Bus2=103079707
New Line.107B88_107B89_2663384 Bus1=1140790 Bus2=25879303
New Line.A649K_12122_2626929 Bus1=27136651 Bus2=27136656
New Line.B324K_B325K_2626951 Bus1=1106175 Bus2=1106172
New Line.6TE39_6TE35_2655976 Bus1=27136889 Bus2=27136895
...
!New Line.6MG63__2678615 Bus1=26803517 Bus2=26803518
New Line.8EK62__2659231 Bus1=25586104 Bus2=25586124
New Line.BUS_104029640 Bus1=103294836 Bus2=103294834
New Line.6TE37__2655986 Bus1=25359988 Bus2=25360031
New Line.PME14_NV06_2650270 Bus1=26999194 Bus2=26999191
New Line.13PX88__2693857 Bus1=27000180 Bus2=26709740
New Line.9AM89_9AM90_2659656 Bus1=26999864 Bus2=26999861
New Line.6TE34__2655983 Bus1=25359970 Bus2=25359999
New Line.6TE36__2655985 Bus1=25359973 Bus2=25360014
New Line.BUS_104508462 Bus1=103462490 Bus2=103462488
New Line.G261K__2693038 Bus1=26999361 Bus2=1105100
New Line.U561BH__2634416 Bus1=1140270 Bus2=1140271
New Line.126696_126697_2670648 Bus1=26999928 Bus2=26999931
New Line.13PX94__2693852 Bus1=26709797 Bus2=27000175
New Line.17BT58__104029636 Bus1=103294839 Bus2=103294850
New Line.D102K__2701015 Bus1=25734598 Bus2=27136769
New Line.13PX94__2693851 Bus1=27000174 Bus2=26709797
New Line.14L465__2680578 Bus1=26887559 Bus2=26887570
New Line.17BT58__104029637 Bus1=103294838 Bus2=103294673
New Line.8R721__2685192 Bus1=26991510 Bus2=25490385
New Line.D102K__2701014 Bus1=27136768 Bus2=25734598
New Line.6TE39__2655987 Bus1=25359971 Bus2=25360028
New Line.9W754__2701508 Bus1=103014538 Bus2=25858578
New Line.U553BH_U554BH_2628342 Bus1=1140220 Bus2=1140190
New Line.10EH22__2701092 Bus1=27136846 Bus2=25917435
New Line.13PX88__2693858 Bus1=26709740 Bus2=27000181
New Line.8EK67__2659236 Bus1=25833119 Bus2=25833120
New Line.BUS_104508464 Bus1=103462491 Bus2=103462489
New Line.G2635_G2636_2650273 Bus1=26999204 Bus2=26999197
New Line.11E483__2701113 Bus1=26128186 Bus2=27136867
New Line.8DT86__2692948 Bus1=25734566 Bus2=26999271
New Line.14Q054_14Q055_103041330 Bus1=103016838 Bus2=103016839
New Line.8DT86__2692949 Bus1=25734566 Bus2=26999272
New Line.12129__2693815 Bus1=27000138 Bus2=1105038
New Line.126697__2693607 Bus1=26356916 Bus2=26999930
New Line.18FA93__105436421 Bus1=103631345 Bus2=103631336
New Line.7NW93__2654657 Bus1=25734561 Bus2=25238962
New Line.D106K__2700910 Bus1=25734600 Bus2=27136664
New Line.G258K_G257K_2626995 Bus1=27136690 Bus2=27136693
New Line.PBB38__2634447 Bus1=1139895 Bus2=1139896
New Line.106804__2662461 Bus1=25836854 Bus2=25836913
New Line.11E483__2701114 Bus1=27136868 Bus2=26128186
New Line.126697__2693608 Bus1=26999931 Bus2=26356916
New Line.8DT84__2693063 Bus1=26999386 Bus2=25734568
New Line.9AM83_D883K_2659658 Bus1=25631623 Bus2=26999865
New Line.8DT84__2693062 Bus1=25734568 Bus2=26999385
New Line.8DT93_8DT94_2657071 Bus1=26999512 Bus2=26999508
New Line.U489BH__2634394 Bus1=26119675 Bus2=1140692
New Line.8EK64__2659233 Bus1=25833131 Bus2=25833132
New Line.8EK66__2659235 Bus1=25784511 Bus2=25833107
New Line.18KP61__105820220 Bus1=103645570 Bus2=103645572
New Line.8EK65__2659234 Bus1=25586117 Bus2=25784512
New Line.U761BH__2633424 Bus1=1140496 Bus2=1140497
New Line.14LJ02_14LJ03_2680794 Bus1=27137109 Bus2=27137106
New Line.183Y09_183Y10_104695364 Bus1=103536820 Bus2=103536822
New Line.U565BH__2667829 Bus1=1140198 Bus2=26139233
New Line.11E480__2701123 Bus1=27136877 Bus2=26128170
New Line.7NX11_7NX10_2664931 Bus1=26999400 Bus2=26999395
New Line.U543BH_U551BH_2628337 Bus1=1140222 Bus2=1140193
New Line.10CY32_10CY33_2663809 Bus1=25905255 Bus2=25905256
New Line.U609BH__2692827 Bus1=26999150 Bus2=1139872
New Line.18NP34__106231436 Bus1=103666848 Bus2=103666882
New Line.18NP34__106231437 Bus1=103666861 Bus2=103666848
New Line.D113K__2633461 Bus1=25734607 Bus2=1106083
New Line.G253K__2700930 Bus1=27136684 Bus2=25734640
New Line.102L15_102L16_2661142 Bus1=27136918 Bus2=27136921
New Line.17MN16__104282524 Bus1=103383286 Bus2=103383288
New Line.G253K__2700931 Bus1=25734640 Bus2=27136685
New Line.U789BH__2633428 Bus1=1140305 Bus2=1140306
New Line.106800__2662465 Bus1=25836861 Bus2=25836892
New Line.13PX93__2693849 Bus1=27000172 Bus2=26709791
New Line.7WL57_7WL54_2656207 Bus1=27136911 Bus2=27136906
New Line.8DT92__2657078 Bus1=25734539 Bus2=25443503
New Line.132416__2673923 Bus1=26555820 Bus2=26555821
New Line.6TE36_6TE40_2655978 Bus1=27136892 Bus2=27136898
New Line.9WF47_9WF48_2663243 Bus1=27136700 Bus2=27136762
New Line.13WA55_144381_2678077 Bus1=26776441 Bus2=27137093
New Line.8DT91__2657079 Bus1=25734540 Bus2=25443509
New Line.17KH65__104218260 Bus1=103359056 Bus2=103359057
!New Line.18NP34__106231438 Bus1=103666848 Bus2=103666859
New Line.U609BH__2692828 Bus1=1139872 Bus2=26999151
New Line.U876BH_U877BH_2625901 Bus1=1140515 Bus2=1140867
New Line.U879BH_U880BH_2625897 Bus1=1141081 Bus2=1141080
New Line.U881BH__2632711 Bus1=1141078 Bus2=1141079
New Line.17KH65__104218261 Bus1=103359055 Bus2=103359056
New Line.12AK60__2701055 Bus1=27136809 Bus2=26387839
New Line.8DT89_8DT97_103222721 Bus1=103079643 Bus2=103079646
New Line.9W758__2662747 Bus1=25858576 Bus2=25858661
New Line.A457K__2633450 Bus1=26281716 Bus2=1105650
New Line.U567BH__2636920 Bus1=1140167 Bus2=1140168
New Line.10EF34_10D187_2663677 Bus1=25893620 Bus2=25905475
New Line.12AK60__2701054 Bus1=26387839 Bus2=27136808
New Line.14FX08__2700746 Bus1=103322576 Bus2=26859622
New Line.17Q659_17Q660_104378562 Bus1=103413071 Bus2=103413070
New Line.7365K_5DN79_2652210 Bus1=25098741 Bus2=1104964
New Line.D115K__2633459 Bus1=25734587 Bus2=1105913
New Line.U122BH_U414BH_103374413 Bus1=103117918 Bus2=103117921
New Line.14L345_14L346_2680571 Bus1=27136568 Bus2=27136570
New Line.A455K__2633480 Bus1=26281720 Bus2=1105707
New Line.14J292_ND80BH_2626904 Bus1=1140858 Bus2=1140827
New Line.7351K_7352K_2629421 Bus1=1104732 Bus2=1104708
New Line.9WA93__2701524 Bus1=27137278 Bus2=25873713
New Line.U787BH_U789BH_2626941 Bus1=1140453 Bus2=1140305
New Line.132363_132362_2673928 Bus1=26999444 Bus2=26999441
New Line.14L468__2680589 Bus1=26887563 Bus2=26887578
New Line.18GC40_18FA93_105326042 Bus1=103631340 Bus2=103626619
New Line.8DR55__2657051 Bus1=25426806 Bus2=25426816
New Line.9WA93__2701523 Bus1=25873713 Bus2=27137277
New Line.A473K__2633478 Bus1=1105587 Bus2=1105588
New Line.5R685_7110K_2627028 Bus1=103675378 Bus2=26281695
New Line.A450K_A451K_2626960 Bus1=1106193 Bus2=1106220
New Line.7112K_13HW95_2627006 Bus1=26281699 Bus2=26677225
New Line.D884K_13PX74_2676760 Bus1=26709737 Bus2=27000192
New Line.12AK65_12AK64_2671224 Bus1=27136806 Bus2=27136838
New Line.8DR36__2657904 Bus1=25497403 Bus2=25497404
New Line.CBN14_CBN16_2626962 Bus1=27136709 Bus2=27136706
New Line.18GC33__105325970 Bus1=103626606 Bus2=103626608
New Line.D860K__2693066 Bus1=1105214 Bus2=26999389
New Line.U409BH_U122BH_103374408 Bus1=103118125 Bus2=103117918
New Line.14L346__2700816 Bus1=27136570 Bus2=26887528
New Line.183Y08__104695269 Bus1=103536776 Bus2=103536845
New Line.D860K__2693067 Bus1=26999390 Bus2=1105214
New Line.ND80BH_13L569_2676123 Bus1=26801549 Bus2=27137074
New Line.17KH64__104218223 Bus1=103359454 Bus2=103359037
New Line.12116_12118_2627013 Bus1=26281708 Bus2=26281709
New Line.14G317_14L810_2680021 Bus1=103089685 Bus2=103048713
New Line.8CM13__2657900 Bus1=25426801 Bus2=25497401
New Line.S001K__2636926 Bus1=1104992 Bus2=1104994
New Line.14L342__2700818 Bus1=26887523 Bus2=27136572
New Line.S001K__2636927 Bus1=1104992 Bus2=1104993
New Line.BUS_104679566 Bus1=103529699 Bus2=T4795B23_10000048
New Line.126696__2670647 Bus1=26356911 Bus2=26356912
New Line.17MN20__104282532 Bus1=103383290 Bus2=103383292
New Line.BUS_104679565 Bus1=103529698 Bus2=T4795B23_10000047
New Line.D862K__2692910 Bus1=1105379 Bus2=26999233
New Line.U760BH_2X516_2626937 Bus1=1140489 Bus2=25111713
New Line.17DH83__104079498 Bus1=103307204 Bus2=103307205
New Line.183Y93__104696246 Bus1=103537127 Bus2=103537208
New Line.7WL58_7MX01_2656219 Bus1=27136912 Bus2=27136904
New Line.BUS_104679563 Bus1=103529696 Bus2=T4795B23_10000046
New Line.14G318_14L472_103098812 Bus1=27136585 Bus2=103125253
New Line.14L342__2700817 Bus1=27136571 Bus2=26887523
New Line.14FX05__2680012 Bus1=26859626 Bus2=26859634
New Line.183Y93__104696244 Bus1=103537127 Bus2=103537742
New Line.132365_132364_2673919 Bus1=26999449 Bus2=26999463
New Line.183Y93__104696245 Bus1=103543459 Bus2=103537127
New Line.9W753__2662742 Bus1=25858571 Bus2=25858579
New Line.105P72__2680188 Bus1=26835313 Bus2=25856674
New Line.17BR90_14Q049_104028962 Bus1=103294677 Bus2=103294685
New Line.D860K_RFJ75_2628371 Bus1=26999389 Bus2=26999392
New Line.U494BH_U495BH_2628304 Bus1=1140682 Bus2=1140673
New Line.A456K_A466K_2626970 Bus1=26165251 Bus2=1105664
New Line.G251K__2692957 Bus1=25734638 Bus2=26999280
New Line.11E480__2667683 Bus1=26128170 Bus2=26128171
New Line.14LJ03__2680806 Bus1=26896052 Bus2=26896084
New Line.9W756__2662746 Bus1=25858574 Bus2=25858647
New Line.107B90_2XB15_2626938 Bus1=25726610 Bus2=1140469
New Line.18GC39__105325980 Bus1=103626614 Bus2=103626616
New Line.8DR41_8DR47_2657049 Bus1=26999384 Bus2=26999379
New Line.8DW53__103222931 Bus1=103079711 Bus2=103079706
New Line.9W757__2662745 Bus1=25858575 Bus2=25858655
New Line.ND80BH__2676122 Bus1=1140827 Bus2=26801549
New Line.7351K_158E26_103192172 Bus1=103079630 Bus2=103072060
New Line.D104K_D118K_2627021 Bus1=27136767 Bus2=27136764
New Line.132358_132359_2673909 Bus1=26999456 Bus2=26999453
New Line.132361_132365_2673917 Bus1=26999448 Bus2=26999450
New Line.9AM81__2659679 Bus1=25631620 Bus2=25631657
New Line.15QR57_15QR58_103849407 Bus1=103249215 Bus2=103249214
New Line.G251K__2692958 Bus1=26999281 Bus2=25734638
New Line.S001K_U574K_2673190 Bus1=26499102 Bus2=1104992
New Line.132351__2693142 Bus1=26555727 Bus2=26999465
New Line.14MD12__103076939 Bus1=26859807 Bus2=103032158
New Line.17DH82__104079470 Bus1=103321743 Bus2=103307193
New Line.7NW66__2692937 Bus1=26999260 Bus2=25734559
New Line.9W755__2662744 Bus1=25858573 Bus2=25858584
New Line.7NW66__2692936 Bus1=25734559 Bus2=26999259
New Line.8DT89_8DT90_2657069 Bus1=26999367 Bus2=26999346
New Line.12116__2668240 Bus1=26281708 Bus2=26160635
New Line.8EK62_126695_2670644 Bus1=26999374 Bus2=26999927
New Line.9AM80__2659678 Bus1=25631619 Bus2=25631653
New Line.132351__2693141 Bus1=26999464 Bus2=26555727
New Line.13PX82__2693791 Bus1=26709841 Bus2=27000114
New Line.132360__2693158 Bus1=26999481 Bus2=26555789
New Line.13PX82__2693790 Bus1=27000113 Bus2=26709841
New Line.9AM83__2659675 Bus1=25631615 Bus2=25631670
New Line.9W754__2662743 Bus1=25858578 Bus2=25858587
New Line.D114K__2701029 Bus1=25734586 Bus2=27136783
New Line.U518BH__2634400 Bus1=1140700 Bus2=1140701
New Line.132360__2693159 Bus1=26555789 Bus2=26999482
New Line.D114K__2701028 Bus1=27136782 Bus2=25734586
New Line.U775BH__2633405 Bus1=1140844 Bus2=1140845
New Line.14DW88_14G317_2680020 Bus1=103036414 Bus2=103036415
New Line.14L472__103913766 Bus1=103282197 Bus2=26887569
New Line.8DT95_8DT96_2657073 Bus1=26999507 Bus2=26999505
New Line.107H65__2693080 Bus1=25894028 Bus2=26999403
New Line.13L576__2701331 Bus1=27137085 Bus2=26679492
New Line.14FX08__2680009 Bus1=26859622 Bus2=26859648
New Line.183Y93_183Y92_104696416 Bus1=103537208 Bus2=103537209
New Line.17BT62_17BT58_104029711 Bus1=103294850 Bus2=103294847
New Line.186Q93__104672489 Bus1=103527268 Bus2=103527270
New Line.188E98_187W44_104783621 Bus1=103571154 Bus2=103571149
New Line.106800_106799_2662451 Bus1=27136854 Bus2=27136849
New Line.7139K_7140K_2626925 Bus1=1106104 Bus2=1106100
New Line.13L576__2701332 Bus1=26679492 Bus2=27137086
New Line.U538BH__2634408 Bus1=1140285 Bus2=1140286
New Line.9AM87__2659671 Bus1=25631611 Bus2=25631649
New Line.7X078__2701190 Bus1=25360254 Bus2=27136944
New Line.U791BH__2633429 Bus1=1140467 Bus2=1140468
New Line.7NX11__2654659 Bus1=25734563 Bus2=25238968
New Line.5DP95_5DP93_2652221 Bus1=26999492 Bus2=26999489
New Line.G9Z21__103450799 Bus1=25859631 Bus2=103136725
New Line.U871BH__2632716 Bus1=1140511 Bus2=1140512
New Line.13L571__2701324 Bus1=27137078 Bus2=26679486
New Line.9AM78_9AM79_2659660 Bus1=26999856 Bus2=26999853
New Line.106805__2701101 Bus1=27136855 Bus2=25836859
New Line.S001K_7378K_2628397 Bus1=1104992 Bus2=1104995
New Line.106805__2701102 Bus1=25836859 Bus2=27136856
New Line.105505_U339BH_103020784 Bus1=103007685 Bus2=103007628
New Line.144380__2701343 Bus1=27137097 Bus2=26776418
New Line.107C01_0M737_2626939 Bus1=25885367 Bus2=25885435
New Line.14LH93__2680813 Bus1=26907383 Bus2=26896070
New Line.17MN22_15TN76_104282572 Bus1=103383283 Bus2=103384998
New Line.A463K_12116_2627012 Bus1=26281708 Bus2=26281707
New Line.13L571__2701323 Bus1=26679486 Bus2=27137077
New Line.D864K__2633472 Bus1=1105452 Bus2=1105453
New Line.144380__2701344 Bus1=26776418 Bus2=27137098
New Line.CCV22_6TD34_2654584 Bus1=25240433 Bus2=1105027
New Line.13PX77_13PX79_2676796 Bus1=27000198 Bus2=27000201
New Line.9AM80_9AM81_2659662 Bus1=26999870 Bus2=26999867
New Line.U872BH_U874BH_2625899 Bus1=25885434 Bus2=25885433
New Line.7231K_158Q94_2628407 Bus1=103180975 Bus2=1104683
New Line.A465K__2633448 Bus1=26281718 Bus2=1106087
New Line.U498BH_U517BH_2628306 Bus1=1140418 Bus2=1140415
New Line.144381__2701339 Bus1=27137093 Bus2=26776411
New Line.116C33__2700966 Bus1=27136720 Bus2=25873717
New Line.116C33__2700967 Bus1=25873717 Bus2=27136721
New Line.17MN17__104282526 Bus1=103383297 Bus2=103383299
New Line.5R684__2701009 Bus1=27136763 Bus2=26281698
New Line.U355BH__2678281 Bus1=26796625 Bus2=26796627
New Line.U518BH_U519BH_2628308 Bus1=1140700 Bus2=1140698
New Line.106801__2701103 Bus1=27136857 Bus2=25836871
New Line.15QR56_15QR57_103849399 Bus1=103249211 Bus2=103249210
New Line.8DT86_8DT87_2657067 Bus1=26999272 Bus2=26999295
New Line.7NX29_7NX60_2655323 Bus1=26999351 Bus2=26999349
New Line.8DR30_8DR36_2657903 Bus1=26999369 Bus2=26999371
New Line.9AM89__2659673 Bus1=25631613 Bus2=25631664
New Line.12133__2700960 Bus1=27136714 Bus2=1105420
New Line.183Y07_183Y08_104695346 Bus1=103536805 Bus2=103536806
New Line.9AM88__2659672 Bus1=25631612 Bus2=25631667
New Line.0M737_U872BH_2626945 Bus1=25885435 Bus2=25885434
New Line.12129__2634474 Bus1=1105038 Bus2=1105039
New Line.14FX06_14FX05_2679998 Bus1=27136493 Bus2=27136496
New Line.17MN20__104282573 Bus1=103383290 Bus2=103383291
New Line.6TE40__2655988 Bus1=25359989 Bus2=25360023
New Line.7146K__2633414 Bus1=1106212 Bus2=1106213
New Line.7WL55__2701149 Bus1=25360338 Bus2=27136903
New Line.8DT92_8DT91_2657075 Bus1=26999516 Bus2=26999513
New Line.NV06__2692870 Bus1=26999193 Bus2=25024993
New Line.G2636__2634457 Bus1=25025000 Bus2=1139810
New Line.NV06__2692871 Bus1=25024993 Bus2=26999194
New Line.183Y07__104695263 Bus1=103536773 Bus2=103536841
New Line.U787BH_U791BH_2626942 Bus1=103197620 Bus2=1140467
New Line.13L569__2701320 Bus1=27137074 Bus2=26679484
New Line.13L576_ND80BH_2676131 Bus1=26801550 Bus2=27137085
New Line.7354K_7356K_2629424 Bus1=1104968 Bus2=1104971
New Line.15QR55_15QR56_103849384 Bus1=103249208 Bus2=103249207
New Line.17MN20__104282574 Bus1=103383289 Bus2=103383290
New Line.18PH82_18PH79_104696337 Bus1=103537160 Bus2=103537161
New Line.U343BH_G9Z21_2626899 Bus1=103007689 Bus2=25859631
New Line.183Y07__104695264 Bus1=103536804 Bus2=103536773
New Line.11E481_11E482_2667686 Bus1=103125601 Bus2=27136876
New Line.11E483_11E484_2667690 Bus1=27136865 Bus2=27136868
New Line.183Y07__104695265 Bus1=103536773 Bus2=103536805
New Line.B323K_B324K_2626950 Bus1=1106201 Bus2=1106175
New Line.G260K_G259K_2627022 Bus1=27136694 Bus2=27136697
New Line.U761BH_U764BH_2626947 Bus1=1140496 Bus2=1140821
New Line.G2635__2634456 Bus1=25024991 Bus2=1139623
New Line.PBB37_NV02BH_2628358 Bus1=26999148 Bus2=26999201
New Line.12118_D102K_2627019 Bus1=25734597 Bus2=27136659
New Line.2YC86__2633471 Bus1=1105450 Bus2=1105451
...
